/*--------------------------------*- C++ -*----------------------------------*\
| =========                 |                                                 |
| \\      /  F ield         | OpenFOAM: The Open Source CFD Toolbox           |
|  \\    /   O peration     | Version:  5.0                                   |
|   \\  /    A nd           | Web:      www.OpenFOAM.org                      |
|    \\/     M anipulation  |                                                 |
\*---------------------------------------------------------------------------*/
FoamFile
{
    version     2.0;
    format      ascii;
    class       dictionary;
    location    "constant";
    object      thermophysicalProperties;
}
// * * * * * * * * * * * * * * * * * * * * * * * * * * * * * * * * * * * * * //

thermoType
{
    type            heRhoThermo;
    mixture         pureMixture;
    transport       fluidLutTransport;
    thermo          fluidLutThermo;
    equationOfState fluidLutEOS;
    specie          specie;
    energy          sensibleEnthalpy;
}

mixture
{
    specie
    {
        nMoles 1;
        molWeight 1;
    }
    thermodynamics
    {
        #include "dataH2/dataCp.foam";
    }
    transport
    {
        #include "dataH2/dataMu.foam";
        #include "dataH2/dataTk.foam";
        #include "dataH2/dataEk.foam";
    }
    equationOfState
    {
        pRef            101325.;
        #include "dataH2/dataRho.foam";
    }
}

calculateCompositionFieldsYN true;
compositions
{
	#includeIfPresent "dataH2/dataSpecies.foam";
}

// * * * * * * * * * * * * * * * * * * * * * * * * * * * * * * * * * * * * * //
